1

                    Execution started at 20220812.085034         



                    ---------------------------------------
                                     SWAN
                    SIMULATION OF WAVES IN NEAR SHORE AREAS
                             VERSION NUMBER 41.41               
                    ---------------------------------------


    
 $*************************HEADING************************
    
 $
    
 PROJ 'F32har01' 'F32'
    
 $
    
 $ Field case: the Haringvliet test
    
 $ Time of simulation: 21:00 UTC on October 14, 1982
    
 $
    
 $********************MODEL INPUT*************************
    
 $
    
 SET LEVEL 0.30
    
 $
    
 CGRID UNSTRUCTURED CIRCLE 36 0.0521 1. 31
 Resolution in sigma-space: df/f =  0.1000
    
 READ UNSTRUCTURED triangle 'f32hari'


 The unstructured grid contains solely triangles generated by Triangle

 Number of vertices          =    5961

 Number of cells             =   11489
    Number of internal cells =   11078
    Number of boundary cells =     411

 Number of faces             =   17449
    Number of internal faces =   17018
    Number of boundary faces =     431


 The minimum gridsize =    26.35800
 The maximum gridsize =   706.46484
    
 $
    
 INPGRID BOTTOM 0. 0. 0. 87 116 250. 250. EXC -99.
    
 READINP BOTTOM 1. 'f31hari.bot' 3 0 FREE
    
 $
    
 WIND 12. 8.8
    
 $
    
 BOU SIDE 2 CCW CON FILE 'f31har01.bnd' 1
 next vertex found =          808
    
 $
    
 GEN3 DRAG WU
    
 BREAKING
    
 FRICTION
    
 TRIADS
    
 $
    
 $*************************************************************
    
 $
    
 POINTS 'BUOYS' FILE   'f31hari.loc'
    
 TABLE  'BUOYS' HEAD   'f32har01.tab' DIST DEP HS RTP TM01 TM02 DSPR DIR FORCE
    
 TABLE  'BUOYS' NOHEAD 'f32har01.tbl' HS RTP TPS TM01 TM02
    
 SPEC   'BUOYS' SPEC1D 'f32har01.spc'
    
 $
    
 BLOCK 'COMPGRID' NOHEAD 'f32har01.mat' LAY 3 XP YP BOTLEV HS TM01 DSPR
    
 $
    
 BLOCK 'COMPGRID' NOHEAD 'f32har01.vtk' BOTLEV HS TM01 DSPR
    
 $
    
 TEST 1,0
    
 COMPUTE

----------------------------------------------------------------
                  COMPUTATIONAL PART OF SWAN
----------------------------------------------------------------

 Gridresolution       : MSC              32 MDC             36
                      : MTC               1
                      : NSTATC            0 ITERMX          50
 Propagation flags    : ITFRE             1 IREFR            1
 Source term flags    : IBOT              1 ISURF            1
                      : IWCAP             1 IWIND            3
                      : ITRIAD           11 IQUAD            2
                      : IBRAG             0 IQCM             0
                      : IVEG              0 ITURBV           0
                      : IMUD              0 IICE             0
 Spectral bin         : df/f     0.1000E+00 DDIR    0.1000E+02
 Physical constants   : GRAV     0.9810E+01 RHO     0.1025E+04
 Wind input           : WSPEED   0.1200E+02 DIR     0.8800E+01
                      : ICEWIND  0.00
 Tail parameters      : E(f)     0.4000E+01 E(k)    0.2500E+01
                      : A(f)     0.5000E+01 A(k)    0.3000E+01
 Accuracy parameters  : DREL     0.1000E-01 NPNTS   0.9950E+02
                      : DHABS    0.5000E-02 CURVAT  0.5000E-02
                      : GRWMX    0.1000E+00
 Drying/flooding      : LEVEL    0.3000E+00 DEPMIN  0.5000E-01
 The Cartesian convention for wind and wave directions is used
 Scheme for geographic propagation is BSBT  
 Scheme spectral space: CSS      0.5000E+00 CDD     0.5000E+00
 Current is off
 Quadruplets          : IQUAD             2
                      : LAMBDA   0.2500E+00 CNL4    0.3000E+08
                      : CSH1     0.5500E+01 CSH2    0.8330E+00
                      : CSH3    -0.1250E+01
 Maximum Ursell nr for Snl4 :    0.1000E+02
 Triads               : ITRIAD           11 TRFAC   0.5000E-01
                      : CUTFR    0.2500E+01 URCRI   0.2000E+00
 Minimum Ursell nr for Snl3 :    0.1000E-01
 Bragg scattering is off
 QC scattering is off
 Surfbeat (IEM) is off
 JONSWAP (`73)        : GAMMA    0.3800E-01
 Vegetation is off
 Turbulence is off
 Fluid mud is off
 Dissipation by sea ice is off
 W-cap Komen (`84)    : EMPCOF (CDS2):   0.2360E-04
 W-cap Komen (`84)    : APM (STPM)   :   0.3020E-02
 W-cap Komen (`84)    : POWST        :   0.2000E+01
 W-cap Komen (`84)    : DELTA        :   0.1000E+01
 W-cap Komen (`84)    : POWK         :   0.1000E+01
 Wind drag is Wu
 Snyder/Komen wind input
 Battjes&Janssen (`78): ALPHA    0.1000E+01 GAMMA   0.7300E+00
 Set-up is off
 Diffraction is off
 Janssen (`89,`90)    : ALPHA    0.1000E-01 KAPPA   0.4100E+00
 Janssen (`89,`90)    : RHOA     0.1280E+01 RHOW    0.1025E+04
 
 1st and 2nd gen. wind: CF10     0.1880E+03 CF20    0.5900E+00
                      : CF30     0.1200E+00 CF40    0.2500E+03
                      : CF50     0.2300E-02 CF60   -0.2230E+00
                      : CF70     0.0000E+00 CF80   -0.5600E+00
                      : RHOAW    0.1249E-02 EDMLPM  0.3600E-02
                      : CDRAG    0.1230E-02 UMIN    0.1000E+01
                      : LIM_PM   0.1300E+00
 
 Number of active points =   5798 (fillings-degree:  97.27 %)


 Settings of 2nd generation mode as first guess are used:
 ITER     1    GRWMX   0.1000E+23    ALFA     0.0000E+00
 IWIND    2    IWCAP    0            IQUAD     0
 ISURF    1    IBOT     1            ITRIAD   11
 IVEG     0    ITURBV   0            IMUD      0
 IICE     0    IBRAG    0
 iteration    1
 use of rescaling in  91.84 % of active vertices with maximum in spectral space =  715
       not possible to compute accuracy, first iteration



 User-defined settings of 3rd generation mode is re-used:
 ITER     2    GRWMX   0.1000E+00    ALFA     0.0000E+00
 IWIND    3    IWCAP    1            IQUAD     2
 ISURF    1    IBOT     1            ITRIAD   11
 IVEG     0    ITURBV   0            IMUD      0
 IICE     0    IBRAG    0
 iteration    2
 use of rescaling in  84.36 % of active vertices with maximum in spectral space =  713
 use of   limiter in  99.24 % of active vertices with maximum in spectral space =  349
 lowest frequency occured above which limiter is applied =  0.0923 Hz
 accuracy OK in  14.68 % of wet grid points ( 99.50 % required)

 iteration    3
 use of rescaling in  77.82 % of active vertices with maximum in spectral space =  655
 use of   limiter in  99.05 % of active vertices with maximum in spectral space =  244
 lowest frequency occured above which limiter is applied =  0.0923 Hz
 accuracy OK in  14.68 % of wet grid points ( 99.50 % required)

 iteration    4
 use of rescaling in  75.18 % of active vertices with maximum in spectral space =  409
 use of   limiter in  98.74 % of active vertices with maximum in spectral space =  156
 lowest frequency occured above which limiter is applied =  0.0923 Hz
 accuracy OK in  14.10 % of wet grid points ( 99.50 % required)

 iteration    5
 use of rescaling in  74.61 % of active vertices with maximum in spectral space =  406
 use of   limiter in  98.28 % of active vertices with maximum in spectral space =  155
 lowest frequency occured above which limiter is applied =  0.0923 Hz
 accuracy OK in  33.21 % of wet grid points ( 99.50 % required)

 iteration    6
 use of rescaling in  73.89 % of active vertices with maximum in spectral space =  410
 use of   limiter in  98.00 % of active vertices with maximum in spectral space =  159
 lowest frequency occured above which limiter is applied =  0.0923 Hz
 accuracy OK in  68.30 % of wet grid points ( 99.50 % required)

 iteration    7
 use of rescaling in  73.78 % of active vertices with maximum in spectral space =  410
 use of   limiter in  97.45 % of active vertices with maximum in spectral space =  154
 lowest frequency occured above which limiter is applied =  0.1015 Hz
 accuracy OK in  80.43 % of wet grid points ( 99.50 % required)

 iteration    8
 use of rescaling in  73.82 % of active vertices with maximum in spectral space =  408
 use of   limiter in  97.19 % of active vertices with maximum in spectral space =  160
 lowest frequency occured above which limiter is applied =  0.1015 Hz
 accuracy OK in  89.69 % of wet grid points ( 99.50 % required)

 iteration    9
 use of rescaling in  73.68 % of active vertices with maximum in spectral space =  413
 use of   limiter in  96.79 % of active vertices with maximum in spectral space =  165
 lowest frequency occured above which limiter is applied =  0.1015 Hz
 accuracy OK in  93.95 % of wet grid points ( 99.50 % required)

 iteration   10
 use of rescaling in  73.75 % of active vertices with maximum in spectral space =  419
 use of   limiter in  96.29 % of active vertices with maximum in spectral space =  166
 lowest frequency occured above which limiter is applied =  0.1015 Hz
 accuracy OK in  96.75 % of wet grid points ( 99.50 % required)

 iteration   11
 use of rescaling in  73.94 % of active vertices with maximum in spectral space =  417
 use of   limiter in  95.98 % of active vertices with maximum in spectral space =  166
 lowest frequency occured above which limiter is applied =  0.1015 Hz
 accuracy OK in  98.35 % of wet grid points ( 99.50 % required)

 iteration   12
 use of rescaling in  73.78 % of active vertices with maximum in spectral space =  416
 use of   limiter in  95.53 % of active vertices with maximum in spectral space =  168
 lowest frequency occured above which limiter is applied =  0.1015 Hz
 accuracy OK in  99.21 % of wet grid points ( 99.50 % required)

 iteration   13
 use of rescaling in  74.03 % of active vertices with maximum in spectral space =  414
 use of   limiter in  95.08 % of active vertices with maximum in spectral space =  168
 lowest frequency occured above which limiter is applied =  0.1015 Hz
 accuracy OK in  99.63 % of wet grid points ( 99.50 % required)

    
 STOP
